%nproc=4
%mem=8GB
#p opt freq b3lyp/6-31g(d)

optimized_conformer_1

0 1
C  3.713716 0.011370 -0.189810
C  2.353900 -0.508529 0.130565
O  2.236783 -1.547242 0.835632
O  1.229350 0.227412 -0.264546
C  -0.095043 -0.240177 -0.247725
C  -0.383548 -1.599280 -0.481375
C  -1.701409 -2.056608 -0.477445
C  -2.748605 -1.166235 -0.251992
C  -2.483412 0.187208 -0.038193
C  -1.160835 0.670908 -0.038283
C  -0.924197 2.120039 0.192305
O  -2.002129 2.982308 0.378806
O  0.244841 2.590061 0.223996
H  4.420027 -0.832200 -0.340598
H  3.676834 0.618029 -1.118777
H  4.073231 0.646364 0.646287
H  0.407227 -2.304657 -0.697280
H  -1.911501 -3.102852 -0.658882
H  -3.770318 -1.523730 -0.250954
H  -3.318976 0.855650 0.126974
H  -1.855935 3.972161 0.537382

