%chk=output\10_mmff_0.chk
#p B3LYP/6-31G(d) Opt

Gaussian job

0 1
Cl 6.670968 1.187338 -0.467771
C 5.043420 0.655504 -0.308032
C 3.997416 1.533709 -0.572999
C 2.674923 1.097352 -0.441914
C 4.777591 -0.653339 0.086287
C 3.453436 -1.089211 0.217223
C 2.383468 -0.219030 -0.045319
C 0.993607 -0.660537 0.087330
N -0.047902 0.151401 -0.157617
N -1.124776 -0.640514 0.080727
C -2.455598 -0.164944 -0.062935
C -3.539634 -1.018429 0.193951
C -4.848031 -0.547305 0.051616
C -5.072887 0.770215 -0.345467
Cl -6.684719 1.346204 -0.519501
C -4.001364 1.624569 -0.602604
C -2.690469 1.159849 -0.462199
N -0.852031 -1.913626 0.464430
C 0.481363 -1.920406 0.466829
H 4.198389 2.556355 -0.881091
H 1.869231 1.798898 -0.653559
H 5.594283 -1.340335 0.293566
H 3.283951 -2.117099 0.526915
H -3.381421 -2.049781 0.504779
H -5.684248 -1.212365 0.251776
H -4.178226 2.651481 -0.912093
H -1.865383 1.839824 -0.666854
H 1.004643 -2.825778 0.739787

