%chk=output\10_uff_0.chk
#p B3LYP/6-31G(d) Opt

Gaussian job

0 1
Cl 6.738119 1.219344 -0.332442
C 5.077299 0.667787 -0.212270
C 4.025699 1.554093 -0.460142
C 2.701331 1.116226 -0.364842
C 4.803314 -0.658821 0.131527
C 3.480244 -1.101236 0.228039
C 2.412900 -0.216988 -0.019537
C 1.004327 -0.666601 0.077586
N -0.062171 0.124419 -0.145480
N -1.132267 -0.635318 0.037910
C -2.484952 -0.165705 -0.105112
C -3.569832 -1.036117 0.106951
C -4.883398 -0.577585 -0.032580
C -5.128763 0.752804 -0.384795
Cl -6.777539 1.325592 -0.559223
C -4.058086 1.625991 -0.597786
C -2.743101 1.171328 -0.459258
N -0.810210 -1.877915 0.368377
C 0.533442 -1.926330 0.400864
H 4.232692 2.582740 -0.726798
H 1.903496 1.821531 -0.561517
H 5.614869 -1.348950 0.324437
H 3.300412 -2.133099 0.495939
H -3.402406 -2.069921 0.380300
H -5.709342 -1.257528 0.133392
H -4.243131 2.657167 -0.870713
H -1.928948 1.864167 -0.628773
H 1.106000 -2.811073 0.641204

