%chk=output\1_mmff_0.chk
#p B3LYP/6-31G(d) Opt

Gaussian job

0 1
C 3.083067 -0.102963 0.163568
C 1.839634 -0.876080 0.153726
N 0.630595 -0.300386 0.076095
N -0.235846 -1.343339 0.095092
C -1.662081 -1.211642 0.031588
C -2.399132 -2.417405 0.064092
C -3.786048 -2.413635 0.008718
C -4.463537 -1.206346 -0.080142
C -3.773640 0.013186 -0.115226
C -2.349882 0.049872 -0.060466
C -1.771789 1.351970 -0.104242
C -2.534694 2.521826 -0.194577
C -3.914614 2.444041 -0.245480
C -4.526995 1.196584 -0.205875
N 0.353578 -2.574263 0.181662
C 1.649503 -2.269227 0.217594
C 4.333557 -0.734761 0.245758
C 5.514012 0.015758 0.254257
C 5.460671 1.405544 0.180853
C 4.228418 2.048012 0.098838
C 3.048663 1.298915 0.090293
H -1.898842 -3.382728 0.133498
H -4.336662 -3.350263 0.034835
H -5.551226 -1.226380 -0.122388
H -0.697428 1.496793 -0.068935
H -2.039123 3.488723 -0.224439
H -4.513986 3.347185 -0.315630
H -5.614069 1.155463 -0.247008
H 2.377774 -3.064351 0.287343
H 4.417476 -1.816338 0.304582
H 6.476226 -0.486514 0.318335
H 6.378581 1.987792 0.187534
H 4.181212 3.132473 0.041333
H 2.096628 1.822483 0.025536

