%chk=output\2_uff_0.chk
#p B3LYP/6-31G(d) Opt

Gaussian job

0 1
O 1.213904 0.627500 -3.034150
C 1.175149 0.168110 -1.861051
C 2.245930 -0.750779 -1.408957
C 2.855933 -1.624699 -2.326219
C 3.853964 -2.508445 -1.904227
C 4.260000 -2.520714 -0.567720
C 3.674529 -1.643504 0.347999
C 2.677559 -0.756897 -0.069240
C 0.074207 0.595951 -0.975848
N -0.454175 1.832795 -1.002660
N -1.361241 1.872361 -0.036498
C -2.154508 3.032224 0.273176
C -1.999745 4.221349 -0.463391
C -2.771778 5.347145 -0.160050
C -3.704079 5.298584 0.878898
C -3.866347 4.123862 1.616897
C -3.096898 2.995198 1.317730
N -1.452998 0.719349 0.611357
C -0.565182 -0.111372 0.034669
C -0.408140 -1.528702 0.419088
C -0.226059 -2.527550 -0.553336
C -0.066588 -3.862789 -0.171205
C -0.105758 -4.213832 1.180525
C -0.312661 -3.230836 2.151788
C -0.470391 -1.893812 1.773747
H 2.546457 -1.637040 -3.364018
H 4.310881 -3.186200 -2.613674
H 5.031503 -3.206674 -0.242726
H 3.995232 -1.648238 1.381694
H 2.246850 -0.075777 0.653674
H -1.283022 4.280207 -1.272322
H -2.646856 6.258019 -0.731253
H -4.300628 6.171076 1.112074
H -4.589055 4.087394 2.421839
H -3.238177 2.095061 1.901994
H -0.215588 -2.277482 -1.606404
H 0.082265 -4.626143 -0.923878
H 0.017302 -5.248059 1.474809
H -0.349216 -3.504562 3.198285
H -0.622574 -1.142077 2.538583

