%chk=output\4_mmff_0.chk
#p B3LYP/6-31G(d) Opt

Gaussian job

0 1
F 6.291683 1.017055 -0.709097
C 5.027813 0.652525 -0.458626
C 3.983372 1.341795 -1.058571
C 2.665315 0.959025 -0.795227
C 4.779128 -0.411419 0.398979
C 3.460267 -0.795596 0.663440
C 2.384289 -0.114632 0.069108
C 0.998063 -0.504475 0.335714
N -0.048952 0.128500 -0.218441
N -1.119632 -0.537766 0.284961
C -2.453444 -0.183829 -0.052423
C -3.531107 -0.901371 0.492499
C -4.840823 -0.549880 0.157989
C -5.067731 0.509813 -0.713645
F -6.325188 0.843504 -1.031731
C -4.010136 1.228712 -1.260406
C -2.697097 0.884339 -0.931573
N -0.837632 -1.562128 1.129827
C 0.495236 -1.536400 1.157880
H 4.196398 2.170690 -1.726010
H 1.854913 1.508026 -1.272287
H 5.612408 -0.935670 0.856719
H 3.298078 -1.631551 1.338497
H -3.365309 -1.732491 1.175675
H -5.683534 -1.095281 0.571310
H -4.213978 2.051692 -1.938343
H -1.877346 1.453931 -1.365445
H 1.024945 -2.257117 1.764489

