%chk=output\5_uff_0.chk
#p B3LYP/6-31G(d) Opt

Gaussian job

0 1
O 6.004500 0.548487 0.574594
C 4.906261 1.107885 0.308978
O 4.802896 2.503402 0.308128
C 5.915583 3.373152 0.507269
C 6.787320 3.426164 -0.742194
C 3.704057 0.303251 0.045345
N 2.456745 0.802823 0.109920
N 1.634495 -0.219809 -0.078944
N 2.287280 -1.359177 -0.260853
C 3.597818 -1.060269 -0.194475
C 4.668358 -2.054579 -0.402888
C 4.544790 -3.337730 0.154697
C 5.537672 -4.298863 -0.060108
C 6.651545 -3.991773 -0.845967
C 6.770042 -2.725702 -1.425213
C 5.779509 -1.761847 -1.212442
C 0.199951 -0.107316 -0.080470
C -0.604541 -1.241583 -0.284189
C -1.997625 -1.132028 -0.285882
C -2.614781 0.113284 -0.083761
N -4.055069 0.226171 -0.085496
C -4.691934 1.332416 -0.762225
C -5.779739 1.999868 -0.170495
C -6.394177 3.070305 -0.827160
C -5.929797 3.484596 -2.077995
C -4.849979 2.828988 -2.674681
C -4.232576 1.757834 -2.021996
C -4.858141 -0.767225 0.589473
C -4.473687 -1.258826 1.850239
C -5.252020 -2.220571 2.501229
C -6.419386 -2.699998 1.901836
C -6.810551 -2.218616 0.649985
C -6.035252 -1.257112 -0.004988
C -1.811616 1.247279 0.120028
C -0.418463 1.138473 0.121566
H 6.515080 3.041391 1.382780
H 5.532948 4.393800 0.718706
H 6.180962 3.752879 -1.613320
H 7.221214 2.426885 -0.954982
H 7.615952 4.149103 -0.588782
H 3.685872 -3.590904 0.764274
H 5.442143 -5.282701 0.380830
H 7.418188 -4.737289 -1.013030
H 7.625390 -2.493679 -2.046524
H 5.871049 -0.797164 -1.695561
H -0.156321 -2.213674 -0.444475
H -2.596785 -2.017816 -0.454990
H -6.144300 1.697064 0.802892
H -7.229402 3.580318 -0.364844
H -6.406611 4.313590 -2.584808
H -4.492322 3.149464 -3.644643
H -3.403361 1.253364 -2.501588
H -3.577134 -0.889659 2.331905
H -4.950990 -2.592700 3.471975
H -7.020762 -3.444472 2.407340
H -7.713941 -2.592323 0.185574
H -6.345855 -0.901356 -0.979174
H -2.265858 2.215628 0.287881
H 0.175354 2.028895 0.282999

