%chk=output\7_uff_0.chk
#p B3LYP/6-31G(d) Opt

Gaussian job

0 1
Cl 6.704176 1.275756 -0.558058
C 5.052205 0.732562 -0.328050
C 3.987812 1.519287 -0.776350
C 2.670470 1.087920 -0.593875
C 4.798075 -0.487784 0.303871
C 3.482097 -0.923280 0.488557
C 2.401997 -0.138803 0.040916
C 1.000654 -0.582864 0.227253
N -0.077216 0.116303 -0.175557
N -1.135584 -0.603718 0.167024
C -2.494743 -0.205306 -0.087331
C -3.566435 -1.027042 0.308220
C -4.886269 -0.637409 0.059781
C -5.150447 0.573747 -0.584634
F -6.430928 0.949359 -0.824406
C -4.094294 1.397588 -0.981821
C -2.772764 1.012384 -0.735647
N -0.795152 -1.733359 0.771167
C 0.548707 -1.746546 0.822860
H 4.179411 2.465409 -1.266454
H 1.862442 1.714881 -0.949797
H 5.619594 -1.100547 0.652791
H 3.317697 -1.871722 0.980779
H -3.383874 -1.969195 0.808741
H -5.704150 -1.276132 0.367737
H -4.298327 2.336078 -1.481153
H -1.969375 1.665343 -1.051586
H 1.134220 -2.542913 1.260279

