%chk=output\9_uff_0.chk
#p B3LYP/6-31G(d) Opt

Gaussian job

0 1
F -7.304079 1.614793 0.033737
C -6.055061 1.087809 0.054945
C -5.880751 -0.298250 0.034538
C -4.593529 -0.844220 0.056343
C -4.941482 1.930478 0.097218
C -3.652245 1.389361 0.119160
C -3.464614 -0.005189 0.098930
N -2.138831 -0.564234 0.121451
N -1.030683 0.161249 0.161552
C -0.007424 -0.713840 0.171024
C -0.543638 -1.988373 0.135146
N -1.882497 -1.864605 0.104539
C 1.422455 -0.326979 0.212972
C 2.440966 -1.297047 0.220637
C 3.785498 -0.915076 0.260405
C 4.136976 0.446856 0.293310
O 5.470723 0.879755 0.333720
C 6.598044 0.010015 0.345830
C 3.124646 1.411566 0.285703
C 1.780204 1.031867 0.245977
H -6.743155 -0.951641 0.001784
H -4.480806 -1.920568 0.039943
H -5.075881 3.004451 0.113047
H -2.803239 2.059980 0.151891
H -0.018507 -2.933136 0.131164
H 2.206421 -2.352212 0.196068
H 4.543171 -1.686744 0.265214
H 6.612356 -0.609367 -0.575796
H 6.567749 -0.641839 1.244386
H 7.524941 0.618365 0.379398
H 3.381641 2.463061 0.310757
H 1.020630 1.803713 0.241127

